[Format]      =  4.0
[Frequency]   =  0
[Precision]   =  1e-008
[MinAngle]    =  30
[DoSmartMesh] =  0
[Depth]       =  50
[LengthUnits] =  millimeters
[ProblemType] =  planar
[Coordinates] =  cartesian
[ACSolver]    =  0
[PrevType]    =  0
[PrevSoln]    =  ""
[Comment]     =  "Add comments here."
[PointProps]   = 0
[BdryProps]   = 6
  <BeginBdry>
    <BdryName> = "a0"
    <BdryType> = 0
    <A_0> = 0
    <A_1> = 0
    <A_2> = 0
    <Phi> = 0
    <c0> = 0
    <c0i> = 0
    <c1> = 0
    <c1i> = 0
    <Mu_ssd> = 0
    <Sigma_ssd> = 0
    <innerangle> = 0
    <outerangle> = 0
  <EndBdry>
  <BeginBdry>
    <BdryName> = "PB1"
    <BdryType> = 5
    <A_0> = 0
    <A_1> = 0
    <A_2> = 0
    <Phi> = 0
    <c0> = 0
    <c0i> = 0
    <c1> = 0
    <c1i> = 0
    <Mu_ssd> = 0
    <Sigma_ssd> = 0
    <innerangle> = 0
    <outerangle> = 0
  <EndBdry>
  <BeginBdry>
    <BdryName> = "PB2"
    <BdryType> = 5
    <A_0> = 0
    <A_1> = 0
    <A_2> = 0
    <Phi> = 0
    <c0> = 0
    <c0i> = 0
    <c1> = 0
    <c1i> = 0
    <Mu_ssd> = 0
    <Sigma_ssd> = 0
    <innerangle> = 0
    <outerangle> = 0
  <EndBdry>
  <BeginBdry>
    <BdryName> = "PB3"
    <BdryType> = 5
    <A_0> = 0
    <A_1> = 0
    <A_2> = 0
    <Phi> = 0
    <c0> = 0
    <c0i> = 0
    <c1> = 0
    <c1i> = 0
    <Mu_ssd> = 0
    <Sigma_ssd> = 0
    <innerangle> = 0
    <outerangle> = 0
  <EndBdry>
  <BeginBdry>
    <BdryName> = "PB4"
    <BdryType> = 5
    <A_0> = 0
    <A_1> = 0
    <A_2> = 0
    <Phi> = 0
    <c0> = 0
    <c0i> = 0
    <c1> = 0
    <c1i> = 0
    <Mu_ssd> = 0
    <Sigma_ssd> = 0
    <innerangle> = 0
    <outerangle> = 0
  <EndBdry>
  <BeginBdry>
    <BdryName> = "APairgap"
    <BdryType> = 7
    <A_0> = 0
    <A_1> = 0
    <A_2> = 0
    <Phi> = 0
    <c0> = 0
    <c0i> = 0
    <c1> = 0
    <c1i> = 0
    <Mu_ssd> = 0
    <Sigma_ssd> = 0
    <innerangle> = 3.75
    <outerangle> = 0
  <EndBdry>
[BlockProps]  = 11
  <BeginBlock>
    <BlockName> = "stator_steel"
    <Mu_x> = 1
    <Mu_y> = 1
    <H_c> = 0
    <H_cAngle> = 0
    <J_re> = 0
    <J_im> = 0
    <Sigma> = 1.8999999999999999
    <d_lam> = 0.63500000000000001
    <Phi_h> = 0
    <Phi_hx> = 0
    <Phi_hy> = 0
    <LamType> = 0
    <LamFill> = 0.97999999999999998
    <NStrands> = 0
    <WireD> = 1
    <BHPoints> = 47
      0	0
      0.050000000000000003	15.120714
      0.10000000000000001	22.718292000000002
      0.14999999999999999	27.842732999999999
      0.20000000000000001	31.871434000000001
      0.25	35.365043999999997
      0.29999999999999999	38.600588000000002
      0.34999999999999998	41.736201999999999
      0.40000000000000002	44.873978999999999
      0.45000000000000001	48.087806999999998
      0.5	51.437235999999999
      0.55000000000000004	54.975220999999998
      0.59999999999999998	58.752992999999996
      0.65000000000000002	62.823644000000002
      0.69999999999999996	67.245284999999996
      0.75	72.084406000000001
      0.80000000000000004	77.420100000000005
      0.84999999999999998	83.350020999999998
      0.90000000000000002	89.999611999999999
      0.94999999999999996	97.537352999999996
      1	106.20140600000001
      1.05	116.34846400000001
      1.1000000000000001	128.54732899999999
      1.1499999999999999	143.76543100000001
      1.2	163.75416899999999
      1.25	191.86815799999999
      1.3	234.833507
      1.3500000000000001	306.50976900000001
      1.3999999999999999	435.255202
      1.45	674.911968
      1.5	1108.3255690000001
      1.55	1813.085468
      1.6000000000000001	2801.2174209999998
      1.6499999999999999	4053.6531169999998
      1.7	5591.10689
      1.75	7448.318413
      1.8	9708.81567
      1.8500000000000001	12486.931615
      1.8999999999999999	16041.483644
      1.95	21249.420623999998
      2	31313.495878000002
      2.0499999999999998	53589.446877000002
      2.1000000000000001	88477.484601000004
      2.1499999999999999	124329.41054
      2.2000000000000002	159968.5693
      2.25	197751.604272
      2.2999999999999998	234024.75134700001
  <EndBlock>
  <BeginBlock>
    <BlockName> = "U+"
    <Mu_x> = 1
    <Mu_y> = 1
    <H_c> = 0
    <H_cAngle> = 0
    <J_re> = 0
    <J_im> = 0
    <Sigma> = 0
    <d_lam> = 0
    <Phi_h> = 0
    <Phi_hx> = 0
    <Phi_hy> = 0
    <LamType> = 0
    <LamFill> = 1
    <NStrands> = 0
    <WireD> = 1
    <BHPoints> = 0
  <EndBlock>
  <BeginBlock>
    <BlockName> = "U-"
    <Mu_x> = 1
    <Mu_y> = 1
    <H_c> = 0
    <H_cAngle> = 0
    <J_re> = 0
    <J_im> = 0
    <Sigma> = 0
    <d_lam> = 0
    <Phi_h> = 0
    <Phi_hx> = 0
    <Phi_hy> = 0
    <LamType> = 0
    <LamFill> = 1
    <NStrands> = 0
    <WireD> = 1
    <BHPoints> = 0
  <EndBlock>
  <BeginBlock>
    <BlockName> = "V+"
    <Mu_x> = 1
    <Mu_y> = 1
    <H_c> = 0
    <H_cAngle> = 0
    <J_re> = 0
    <J_im> = 0
    <Sigma> = 0
    <d_lam> = 0
    <Phi_h> = 0
    <Phi_hx> = 0
    <Phi_hy> = 0
    <LamType> = 0
    <LamFill> = 1
    <NStrands> = 0
    <WireD> = 1
    <BHPoints> = 0
  <EndBlock>
  <BeginBlock>
    <BlockName> = "V-"
    <Mu_x> = 1
    <Mu_y> = 1
    <H_c> = 0
    <H_cAngle> = 0
    <J_re> = 0
    <J_im> = 0
    <Sigma> = 0
    <d_lam> = 0
    <Phi_h> = 0
    <Phi_hx> = 0
    <Phi_hy> = 0
    <LamType> = 0
    <LamFill> = 1
    <NStrands> = 0
    <WireD> = 1
    <BHPoints> = 0
  <EndBlock>
  <BeginBlock>
    <BlockName> = "W+"
    <Mu_x> = 1
    <Mu_y> = 1
    <H_c> = 0
    <H_cAngle> = 0
    <J_re> = 0
    <J_im> = 0
    <Sigma> = 0
    <d_lam> = 0
    <Phi_h> = 0
    <Phi_hx> = 0
    <Phi_hy> = 0
    <LamType> = 0
    <LamFill> = 1
    <NStrands> = 0
    <WireD> = 1
    <BHPoints> = 0
  <EndBlock>
  <BeginBlock>
    <BlockName> = "W-"
    <Mu_x> = 1
    <Mu_y> = 1
    <H_c> = 0
    <H_cAngle> = 0
    <J_re> = 0
    <J_im> = 0
    <Sigma> = 0
    <d_lam> = 0
    <Phi_h> = 0
    <Phi_hx> = 0
    <Phi_hy> = 0
    <LamType> = 0
    <LamFill> = 1
    <NStrands> = 0
    <WireD> = 1
    <BHPoints> = 0
  <EndBlock>
  <BeginBlock>
    <BlockName> = "air"
    <Mu_x> = 1
    <Mu_y> = 1
    <H_c> = 0
    <H_cAngle> = 0
    <J_re> = 0
    <J_im> = 0
    <Sigma> = 0
    <d_lam> = 0
    <Phi_h> = 0
    <Phi_hx> = 0
    <Phi_hy> = 0
    <LamType> = 0
    <LamFill> = 1
    <NStrands> = 0
    <WireD> = 1
    <BHPoints> = 0
  <EndBlock>
  <BeginBlock>
    <BlockName> = "airgap"
    <Mu_x> = 1
    <Mu_y> = 1
    <H_c> = 0
    <H_cAngle> = 0
    <J_re> = 0
    <J_im> = 0
    <Sigma> = 0
    <d_lam> = 0
    <Phi_h> = 0
    <Phi_hx> = 0
    <Phi_hy> = 0
    <LamType> = 0
    <LamFill> = 1
    <NStrands> = 0
    <WireD> = 1
    <BHPoints> = 0
  <EndBlock>
  <BeginBlock>
    <BlockName> = "magnet"
    <Mu_x> = 1.1100000000000001
    <Mu_y> = 1.1100000000000001
    <H_c> = 724000
    <H_cAngle> = 0
    <J_re> = 0
    <J_im> = 0
    <Sigma> = 1.1759999999999999
    <d_lam> = 0
    <Phi_h> = 0
    <Phi_hx> = 0
    <Phi_hy> = 0
    <LamType> = 0
    <LamFill> = 1
    <NStrands> = 0
    <WireD> = 1
    <BHPoints> = 0
  <EndBlock>
  <BeginBlock>
    <BlockName> = "rotor_steel"
    <Mu_x> = 1
    <Mu_y> = 1
    <H_c> = 0
    <H_cAngle> = 0
    <J_re> = 0
    <J_im> = 0
    <Sigma> = 5.7999999999999998
    <d_lam> = 0
    <Phi_h> = 20
    <Phi_hx> = 0
    <Phi_hy> = 0
    <LamType> = 0
    <LamFill> = 1
    <NStrands> = 0
    <WireD> = 1
    <BHPoints> = 13
      0	0
      0.25030000000000002	238.73249999999999
      0.92500000000000004	795.77499999999998
      1.25	1591.55
      1.3899999999999999	2387.3249999999998
      1.5249999999999999	3978.875
      1.71	7957.75
      1.8700000000000001	15915.5
      1.9550000000000001	23873.25
      2.02	39788.75
      2.1099999999999999	79577.5
      2.2250000000000001	159155
      2.4300000000000002	318310
  <EndBlock>
[CircuitProps]  = 0
[NumPoints] = 46
-4.3625911289620234	10.532226670628669	0	0
-9.662756667218515	23.327958195909989	0	0
4.3625911289620234	10.532226670628669	0	0
9.662756667218515	23.327958195909989	0	0
-7.928300000000001	23.972996456638459	0	0
7.928300000000001	23.972996456638459	0	0
-7.9282999999999975	26.384551523761022	0	0
7.9282999999999975	26.384551523761022	0	0
-10.61946524813124	25.637657027188208	0	0
10.61946524813124	25.637657027188208	0	0
-10.734270277840768	25.914820886941595	0	0
-10.810806964313786	26.099596793443851	0	0
-19.134171618254488	46.193976625564339	0	0
10.734270277840768	25.914820886941595	0	0
10.810806964313786	26.099596793443851	0	0
19.134171618254488	46.193976625564339	0	0
6.5708549999999999	27.475194999999999	0	0
6.7520290000000003	28.151343000000001	0	0
5.8072990000000004	28.788260000000001	0	0
7.4133649999999998	40.987560000000002	0	0
8.0470699999999997	27.079644999999999	0	0
8.2282430000000009	27.755793000000001	0	0
9.3648620000000005	27.835014000000001	0	0
14.073617	39.202950999999999	0	0
12.995308	41.509326000000001	0	0
9.5003960000000003	42.445785000000001	0	0
-0.76414499999999996	28.239663	0	0
-0.76414499999999996	28.939662999999999	0	0
-1.8415299999999999	29.310362999999999	0	0
-3.4476	41.509663000000003	0	0
0.76414499999999996	28.239663	0	0
0.76414499999999996	28.939662999999999	0	0
1.8415299999999999	29.310364	0	0
3.4476	41.509663000000003	0	0
1.809099	43.458362999999999	0	0
-1.8090999999999999	43.458362999999999	0	0
-8.0470699999999997	27.079643999999998	0	0
-8.2282430000000009	27.755793000000001	0	0
-9.3648620000000005	27.835014000000001	0	0
-14.073618	39.202950999999999	0	0
-6.5708549999999999	27.475194999999999	0	0
-6.7520290000000003	28.151343000000001	0	0
-5.8072990000000004	28.788260000000001	0	0
-7.4133659999999999	40.987560000000002	0	0
-9.5003960000000003	42.445785000000001	0	0
-12.995308	41.509326000000001	0	0
[NumSegments] = 32
11	12	-1	2	0	0
14	15	-1	2	0	0
13	14	-1	3	0	0
10	11	-1	3	0	0
3	9	-1	4	0	0
1	8	-1	4	0	0
0	1	-1	5	0	0
2	3	-1	5	0	0
4	5	-1	0	0	0
4	6	-1	0	0	0
5	7	-1	0	0	0
16	17	-1	0	0	0
17	18	-1	0	0	0
18	19	-1	0	0	0
20	21	-1	0	0	0
21	22	-1	0	0	0
22	23	-1	0	0	0
18	22	-1	0	0	0
26	27	-1	0	0	0
27	28	-1	0	0	0
28	29	-1	0	0	0
30	31	-1	0	0	0
31	32	-1	0	0	0
32	33	-1	0	0	0
28	32	-1	0	0	0
36	37	-1	0	0	0
37	38	-1	0	0	0
38	39	-1	0	0	0
40	41	-1	0	0	0
41	42	-1	0	0	0
42	43	-1	0	0	0
38	42	-1	0	0	0
[NumArcSegments] = 23
15	12	45	1	1	0	0	1
2	0	45	1	1	0	0	1
13	10	45	1	6	0	0	0.41999999999999998
9	8	45	1	6	0	0	0.41999999999999998
4	1	4.2000000000000002	1	0	0	0	1
3	5	4.2000000000000002	1	0	0	0	1
7	6	33.450000000000003	1	0	0	0	1
14	20	5.9499958739096828	1	0	0	0	1
20	16	3.1000089294294715	1	0	0	0	1
16	30	11.899990724420064	1	0	0	0	1
30	26	3.1000088179132756	1	0	0	0	1
26	40	11.899990827558513	1	0	0	0	1
40	36	3.100009505639004	1	0	0	0	1
36	11	5.9499953211300003	1	0	0	0	1
24	25	4.7699999999999996	20	0	0	0	20
25	19	95.120000000000005	20	0	0	0	20
23	24	95.120000000000005	20	0	0	0	20
34	35	4.7699999999999996	20	0	0	0	20
35	29	95.120000000000005	20	0	0	0	20
33	34	95.120000000000005	20	0	0	0	20
44	45	4.7699999999999996	20	0	0	0	20
45	39	95.120000000000005	20	0	0	0	20
43	44	95.120000000000005	20	0	0	0	20
[NumHoles] = 0
[NumBlockLabels] = 11
0	49.899999999999999	1	1.2	0	0	0	1	0
9.9404579999999996	33.995606000000002	2	1	0	0	0	1	0
0.80303500000000005	35.410013999999997	5	1	0	0	0	1	0
-8.3891139999999993	34.411287000000002	6	1	0	0	0	1	0
7.3995490000000004	27.615494000000002	8	1	0	0	0	1	0
0	28.589663000000002	8	1	0	0	0	1	0
-7.3995499999999996	27.615494000000002	8	1	0	0	0	1	0
-8.7955283336092567	24.856254859835506	9	0.18000000000000002	0	0	0	1	0
0	28.149999999999999	9	0.18000000000000002	0	0	0	1	0
0	26.399999999999999	10	0.18000000000000002	0	90	0	1	0
0	18.324999999999999	11	0.18000000000000002	0	0	0	1	0
