[Format]      =  4.0
[Frequency]   =  0
[Precision]   =  1e-008
[MinAngle]    =  30
[DoSmartMesh] =  1
[Depth]       =  20
[LengthUnits] =  millimeters
[ProblemType] =  planar
[Coordinates] =  cartesian
[ACSolver]    =  0
[PrevType]    =  0
[PrevSoln]    =  ""
[Comment]     =  "Add comments here."
[PointProps]   = 0
[BdryProps]   = 2
  <BeginBdry>
    <BdryName> = "sides of down part"
    <BdryType> = 4
    <A_0> = 0
    <A_1> = 0
    <A_2> = 0
    <Phi> = 0
    <c0> = 0
    <c0i> = 0
    <c1> = 0
    <c1i> = 0
    <Mu_ssd> = 0
    <Sigma_ssd> = 0
    <innerangle> = 0
    <outerangle> = 0
  <EndBdry>
  <BeginBdry>
    <BdryName> = "sides of upper part"
    <BdryType> = 4
    <A_0> = 0
    <A_1> = 0
    <A_2> = 0
    <Phi> = 0
    <c0> = 0
    <c0i> = 0
    <c1> = 0
    <c1i> = 0
    <Mu_ssd> = 0
    <Sigma_ssd> = 0
    <innerangle> = 0
    <outerangle> = 0
  <EndBdry>
[BlockProps]  = 3
  <BeginBlock>
    <BlockName> = "Air"
    <Mu_x> = 1
    <Mu_y> = 1
    <H_c> = 0
    <H_cAngle> = 0
    <J_re> = 0
    <J_im> = 0
    <Sigma> = 0
    <d_lam> = 0
    <Phi_h> = 0
    <Phi_hx> = 0
    <Phi_hy> = 0
    <LamType> = 0
    <LamFill> = 1
    <NStrands> = 0
    <WireD> = 0
    <BHPoints> = 0
  <EndBlock>
  <BeginBlock>
    <BlockName> = "N52"
    <Mu_x> = 1.05
    <Mu_y> = 1.05
    <H_c> = 956180
    <H_cAngle> = 0
    <J_re> = 0
    <J_im> = 0
    <Sigma> = 0.66700000000000004
    <d_lam> = 0
    <Phi_h> = 0
    <Phi_hx> = 0
    <Phi_hy> = 0
    <LamType> = 0
    <LamFill> = 1
    <NStrands> = 0
    <WireD> = 0
    <BHPoints> = 8
      0	0
      0.073200000000000001	7484
      0.1464	18446
      0.2195	37084
      0.29270000000000002	72766
      0.3659	124571
      0.43909999999999999	179757
      1.4636	956180
  <EndBlock>
  <BeginBlock>
    <BlockName> = "printed steel"
    <Mu_x> = 1
    <Mu_y> = 1
    <H_c> = 0
    <H_cAngle> = 0
    <J_re> = 0
    <J_im> = 0
    <Sigma> = 10.44
    <d_lam> = 0
    <Phi_h> = 0
    <Phi_hx> = 0
    <Phi_hy> = 0
    <LamType> = 0
    <LamFill> = 1
    <NStrands> = 0
    <WireD> = 0
    <BHPoints> = 148
      0	0
      0.040455570145007301	1.24860479961032
      0.050455570145007303	2.5387438684797399
      0.060455570145007402	3.8031175511576101
      0.070455570145007404	5.05313304608931
      0.080455570145007205	6.3051020092329999
      0.0904555701450072	7.5748506720881803
      0.100455570145007	8.8781801546639905
      0.110455570145007	10.2308915769697
      0.120455570145007	11.6487860590144
      0.130455570145007	13.147663714277799
      0.14045557014500701	14.738679825295399
      0.15045557014500699	16.413651972168601
      0.160455570145007	18.140858477688699
      0.17045557014500701	19.8820870376945
      0.18045557014500699	21.599122580228201
      0.190455570145007	23.255076256031501
      0.20045557014500701	24.836473609242798
      0.21045557014500699	26.351764637040901
      0.220455570145007	27.830157002524398
      0.230455570145007	29.313052237768801
      0.24045557014500701	30.842022747639302
      0.25045557014500702	32.458105336521299
      0.26045557014500698	34.176166113236697
      0.27045557014500698	35.973608785840597
      0.28045557014500699	37.823502647015999
      0.290455570145007	39.679748803476201
      0.30045557014500701	41.484256841587502
      0.31045557014500702	43.2170556354247
      0.32045557014500697	44.897818011336497
      0.33045557014500698	46.548040505562803
      0.34045557014500699	48.190997468019297
      0.350455570145007	49.868754034911397
      0.36045557014500701	51.628844647511201
      0.37045557014500702	53.471268697082898
      0.38045557014500703	55.372668883607901
      0.39045557014500698	57.309527912032102
      0.40045557014500699	59.258842194550503
      0.410455570145007	61.205314703458697
      0.42045557014500701	63.129998744950697
      0.43045557014500702	65.005838106399395
      0.44045557014500702	66.805622109690006
      0.45045557014500698	68.522718006397994
      0.46045557014500699	70.199051364143202
      0.470455570145007	71.883548195744297
      0.480455570145007	73.625106746692097
      0.49045557014500701	75.472584189743998
      0.50045557014500697	77.465759398090697
      0.51045557014500698	79.562769483923603
      0.52045557014500698	81.678561797389804
      0.53045557014500699	83.727690869355001
      0.540455570145007	85.641582901613305
      0.55045557014500701	87.428105380006102
      0.56045557014500702	89.116966980493302
      0.57045557014500703	90.737881872051503
      0.58045557014500704	92.320415477347595
      0.59045557014500705	93.890087579411599
      0.60045557014500694	95.467991601962296
      0.61045557014500695	97.074802516370795
      0.62045557014500696	98.716411511352803
      0.63045557014500697	100.373749886675
      0.64045557014500698	102.025422983639
      0.65045557014500699	103.659692512194
      0.660455570145007	105.283605996299
      0.67045557014500701	106.91100860069101
      0.68045557014500702	108.578746434721
      0.69045557014500702	110.33078731189801
      0.70045557014500703	112.211101176385
      0.71045557014500704	114.245948787258
      0.72045557014500705	116.39175115723501
      0.73045557014500695	118.586155237805
      0.74045557014500696	120.760790905809
      0.75045557014500697	122.870525763258
      0.76045557014500698	124.926778021467
      0.77045557014500698	126.94883197702001
      0.78045557014500699	128.95597352399699
      0.790455570145007	130.966890397268
      0.80045557014500701	132.996550979761
      0.81045557014500702	135.058675623612
      0.82045557014500703	137.16698432745301
      0.83045557014500704	139.33497113112
      0.84045557014500705	141.567627317572
      0.85045557014500694	143.85819934062101
      0.86045557014500695	146.198901409342
      0.87045557014500696	148.582385580639
      0.88045557014500697	151.02587672815801
      0.89045557014500698	153.59503586823701
      0.90045557014500699	156.37453628788001
      0.910455570145007	159.42951719099901
      0.92045557014500701	162.68064503212801
      0.93045557014500702	165.97158337946601
      0.94045557014500702	169.17061236792
      0.95045557014500703	172.338348253351
      0.96045557014500704	175.579777727237
      0.97045557014500705	178.986959000376
      0.98045557014500695	182.693414892531
      0.99045557014500696	187.583565112195
      1.00045557014501	194.08470236365201
      1.01045557014501	200.23027424847101
      1.02045557014501	207.94189362877299
      1.03045557014501	218.31773549236399
      1.04045557014501	231.57479066339101
      1.05045557014501	247.490165162631
      1.06045557014501	266.30149322430998
      1.07045557014501	290.59949139609898
      1.08045557014501	323.030286244894
      1.09045557014501	375.49392447510002
      1.1004555701450101	452.10655734464899
      1.1104555701450101	541.07065586212002
      1.1204555701450101	642.20341505606496
      1.1304555701450101	755.41477739204504
      1.1404555701450101	884.66168019392205
      1.1504555701450101	1025.87818211482
      1.1604555701450101	1179.9951567298001
      1.1704555701450099	1350.2644907772401
      1.1804555701450099	1530.1846131950499
      1.1904555701450099	1725.8120930339201
      1.2004555701450099	1932.2464777817499
      1.2104555701450099	2151.6685574282401
      1.2880635780174401	4487.7795712636798
      1.2980635780174401	4817.3595638238303
      1.3080635780174401	5162.1181558791504
      1.3180635780174399	5518.6883610410496
      1.3280635780174399	5889.1091079826501
      1.3380635780174399	6276.1011540843201
      1.3480635780174399	6675.1540025590702
      1.3580635780174399	7089.2594333332299
      1.3680635780174399	7519.8758307123298
      1.3780635780174399	7967.9949718594698
      1.38806357801744	8433.6585277737304
      1.39806357801744	8921.6930124850205
      1.40806357801744	9425.4479212642691
      1.41806357801744	9952.1111159148604
      1.42806357801744	10495.003204094901
      1.43806357801744	11066.205918684
      1.44806357801744	11666.571692156
      1.45806357801744	12286.828285273799
      1.46806357801744	12938.3873010231
      1.47806357801744	13620.164654468001
      1.48806357801744	14335.222658307101
      1.4980635780174401	15079.186134978199
      1.5080635780174401	15860.4194364739
      1.5180635780174401	16682.086511143199
      1.5280635780174401	17539.204676767102
      1.5380635780174401	18441.998466128702
      1.5480635780174401	19385.531299079801
      1.5580635780174401	20375.519625928198
      1.5680635780174399	21412.438530393501
  <EndBlock>
[CircuitProps]  = 0
[NumPoints] = 236
1	1	0	0
1	5	0	0
141	5	0	0
141	1	0	0
4.75	5	0	0
4.75	10	0	0
14.75	10	0	0
14.75	5	0	0
22.25	5	0	0
22.25	10	0	0
32.25	10	0	0
32.25	5	0	0
39.75	5	0	0
39.75	10	0	0
49.75	10	0	0
49.75	5	0	0
57.25	5	0	0
57.25	10	0	0
67.25	10	0	0
67.25	5	0	0
74.75	5	0	0
74.75	10	0	0
84.75	10	0	0
84.75	5	0	0
92.25	5	0	0
92.25	10	0	0
102.25	10	0	0
102.25	5	0	0
109.75	5	0	0
109.75	10	0	0
119.75	10	0	0
119.75	5	0	0
127.25	5	0	0
127.25	10	0	0
137.25	10	0	0
137.25	5	0	0
2.75	1	0	0
139.25	1	0	0
4.5	1	0	0
6.25	1	0	0
8	1	0	0
9.75	1	0	0
11.5	1	0	0
13.25	1	0	0
15	1	0	0
16.75	1	0	0
18.5	1	0	0
20.25	1	0	0
22	1	0	0
23.75	1	0	0
25.5	1	0	0
27.25	1	0	0
29	1	0	0
30.75	1	0	0
32.5	1	0	0
34.25	1	0	0
36	1	0	0
37.75	1	0	0
39.5	1	0	0
41.25	1	0	0
43	1	0	0
44.75	1	0	0
46.5	1	0	0
48.25	1	0	0
50	1	0	0
51.75	1	0	0
53.5	1	0	0
55.25	1	0	0
57	1	0	0
58.75	1	0	0
60.5	1	0	0
62.25	1	0	0
64	1	0	0
65.75	1	0	0
67.5	1	0	0
69.25	1	0	0
71	1	0	0
72.75	1	0	0
74.5	1	0	0
76.25	1	0	0
78	1	0	0
79.75	1	0	0
81.5	1	0	0
83.25	1	0	0
85	1	0	0
86.75	1	0	0
88.5	1	0	0
90.25	1	0	0
92	1	0	0
93.75	1	0	0
95.5	1	0	0
97.25	1	0	0
99	1	0	0
100.75	1	0	0
102.5	1	0	0
104.25	1	0	0
106	1	0	0
107.75	1	0	0
109.5	1	0	0
111.25	1	0	0
113	1	0	0
114.75	1	0	0
116.5	1	0	0
118.25	1	0	0
120	1	0	0
121.75	1	0	0
123.5	1	0	0
125.25	1	0	0
127	1	0	0
128.75	1	0	0
130.5	1	0	0
132.25	1	0	0
134	1	0	0
135.75	1	0	0
137.5	1	0	0
-3	-3	0	0
144	-3	0	0
9.75	11	0	0
19.75	11	0	0
19.75	16	0	0
27.25	16	0	0
27.25	11	0	0
37.25	11	0	0
37.25	16	0	0
44.75	16	0	0
44.75	11	0	0
54.75	11	0	0
54.75	16	0	0
62.25	16	0	0
62.25	11	0	0
72.25	11	0	0
72.25	16	0	0
79.75	16	0	0
79.75	11	0	0
89.75	11	0	0
89.75	16	0	0
97.25	16	0	0
97.25	11	0	0
107.25	11	0	0
107.25	16	0	0
114.75	16	0	0
114.75	11	0	0
124.75	11	0	0
124.75	16	0	0
132.25	16	0	0
132.25	11	0	0
142.25	11	0	0
142.25	16	0	0
9.75	16	0	0
6	16	0	0
146	16	0	0
149	23	0	0
3	23	0	0
1.8999999999999999	12.1	0	0
146.09999999999999	9.5	0	0
6	20	0	0
7.75	20	0	0
146	20	0	0
144.25	20	0	0
9.5	20	0	0
11.25	20	0	0
13	20	0	0
14.75	20	0	0
16.5	20	0	0
18.25	20	0	0
20	20	0	0
21.75	20	0	0
23.5	20	0	0
25.25	20	0	0
27	20	0	0
28.75	20	0	0
30.5	20	0	0
32.25	20	0	0
34	20	0	0
35.75	20	0	0
37.5	20	0	0
39.25	20	0	0
41	20	0	0
42.75	20	0	0
44.5	20	0	0
46.25	20	0	0
48	20	0	0
49.75	20	0	0
51.5	20	0	0
53.25	20	0	0
55	20	0	0
56.75	20	0	0
58.5	20	0	0
60.25	20	0	0
62	20	0	0
63.75	20	0	0
65.5	20	0	0
67.25	20	0	0
69	20	0	0
70.75	20	0	0
72.5	20	0	0
74.25	20	0	0
76	20	0	0
77.75	20	0	0
79.5	20	0	0
81.25	20	0	0
83	20	0	0
84.75	20	0	0
86.5	20	0	0
88.25	20	0	0
90	20	0	0
91.75	20	0	0
93.5	20	0	0
95.25	20	0	0
97	20	0	0
98.75	20	0	0
100.5	20	0	0
102.25	20	0	0
104	20	0	0
105.75	20	0	0
107.5	20	0	0
109.25	20	0	0
111	20	0	0
112.75	20	0	0
114.5	20	0	0
116.25	20	0	0
118	20	0	0
119.75	20	0	0
121.5	20	0	0
123.25	20	0	0
125	20	0	0
126.75	20	0	0
128.5	20	0	0
130.25	20	0	0
132	20	0	0
133.75	20	0	0
135.5	20	0	0
137.25	20	0	0
139	20	0	0
140.75	20	0	0
142.5	20	0	0
[NumSegments] = 248
0	1	-1	1	0	0
1	4	-1	0	0	0
2	3	-1	1	0	0
4	7	-1	0	0	0
4	5	-1	0	0	0
5	6	-1	0	0	0
7	8	-1	0	0	0
6	7	-1	0	0	0
8	11	-1	0	0	0
8	9	-1	0	0	0
9	10	-1	0	0	0
11	12	-1	0	0	0
10	11	-1	0	0	0
12	15	-1	0	0	0
12	13	-1	0	0	0
13	14	-1	0	0	0
15	16	-1	0	0	0
14	15	-1	0	0	0
16	19	-1	0	0	0
16	17	-1	0	0	0
17	18	-1	0	0	0
19	20	-1	0	0	0
18	19	-1	0	0	0
20	23	-1	0	0	0
20	21	-1	0	0	0
21	22	-1	0	0	0
23	24	-1	0	0	0
22	23	-1	0	0	0
24	27	-1	0	0	0
24	25	-1	0	0	0
25	26	-1	0	0	0
27	28	-1	0	0	0
26	27	-1	0	0	0
28	31	-1	0	0	0
28	29	-1	0	0	0
29	30	-1	0	0	0
31	32	-1	0	0	0
30	31	-1	0	0	0
32	35	-1	0	0	0
32	33	-1	0	0	0
33	34	-1	0	0	0
35	2	-1	0	0	0
34	35	-1	0	0	0
0	36	-1	0	0	0
3	37	-1	0	0	0
36	38	-1	0	0	0
39	38	-1	0	0	0
40	39	-1	0	0	0
40	41	-1	0	0	0
42	41	-1	0	0	0
42	43	-1	0	0	0
44	43	-1	0	0	0
45	44	-1	0	0	0
45	46	-1	0	0	0
47	46	-1	0	0	0
47	48	-1	0	0	0
49	48	-1	0	0	0
50	49	-1	0	0	0
50	51	-1	0	0	0
52	51	-1	0	0	0
52	53	-1	0	0	0
54	53	-1	0	0	0
55	54	-1	0	0	0
55	56	-1	0	0	0
57	56	-1	0	0	0
57	58	-1	0	0	0
59	58	-1	0	0	0
60	59	-1	0	0	0
60	61	-1	0	0	0
62	61	-1	0	0	0
62	63	-1	0	0	0
64	63	-1	0	0	0
65	64	-1	0	0	0
65	66	-1	0	0	0
67	66	-1	0	0	0
67	68	-1	0	0	0
69	68	-1	0	0	0
70	69	-1	0	0	0
70	71	-1	0	0	0
72	71	-1	0	0	0
72	73	-1	0	0	0
74	73	-1	0	0	0
75	74	-1	0	0	0
75	76	-1	0	0	0
77	76	-1	0	0	0
77	78	-1	0	0	0
79	78	-1	0	0	0
80	79	-1	0	0	0
80	81	-1	0	0	0
82	81	-1	0	0	0
82	83	-1	0	0	0
84	83	-1	0	0	0
85	84	-1	0	0	0
85	86	-1	0	0	0
87	86	-1	0	0	0
87	88	-1	0	0	0
89	88	-1	0	0	0
90	89	-1	0	0	0
90	91	-1	0	0	0
92	91	-1	0	0	0
92	93	-1	0	0	0
94	93	-1	0	0	0
95	94	-1	0	0	0
95	96	-1	0	0	0
97	96	-1	0	0	0
97	98	-1	0	0	0
99	98	-1	0	0	0
100	99	-1	0	0	0
100	101	-1	0	0	0
102	101	-1	0	0	0
102	103	-1	0	0	0
104	103	-1	0	0	0
105	104	-1	0	0	0
105	106	-1	0	0	0
107	106	-1	0	0	0
107	108	-1	0	0	0
109	108	-1	0	0	0
110	109	-1	0	0	0
110	111	-1	0	0	0
112	111	-1	0	0	0
112	113	-1	0	0	0
114	113	-1	0	0	0
37	114	-1	0	0	0
115	0	-1	0	0	0
116	3	-1	0	0	0
117	118	-1	0	0	0
118	119	-1	0	0	0
119	120	-1	0	0	0
120	121	-1	0	0	0
121	122	-1	0	0	0
122	123	-1	0	0	0
123	124	-1	0	0	0
124	125	-1	0	0	0
125	126	-1	0	0	0
126	127	-1	0	0	0
127	128	-1	0	0	0
128	129	-1	0	0	0
129	130	-1	0	0	0
130	131	-1	0	0	0
131	132	-1	0	0	0
132	133	-1	0	0	0
133	134	-1	0	0	0
134	135	-1	0	0	0
135	136	-1	0	0	0
136	137	-1	0	0	0
137	138	-1	0	0	0
138	139	-1	0	0	0
139	140	-1	0	0	0
140	141	-1	0	0	0
141	142	-1	0	0	0
142	143	-1	0	0	0
143	144	-1	0	0	0
144	145	-1	0	0	0
145	146	-1	0	0	0
146	147	-1	0	0	0
117	148	-1	0	0	0
148	149	-1	0	0	0
147	150	-1	0	0	0
115	116	-1	0	0	0
151	152	-1	0	0	0
149	153	-1	0	0	0
153	1	-1	0	0	0
150	154	-1	0	0	0
154	2	-1	0	0	0
155	156	-1	0	0	0
157	158	-1	0	0	0
151	157	-1	0	0	0
155	152	-1	0	0	0
150	157	-1	2	0	0
149	155	-1	2	0	0
156	159	-1	0	0	0
160	159	-1	0	0	0
161	160	-1	0	0	0
161	162	-1	0	0	0
163	162	-1	0	0	0
163	164	-1	0	0	0
165	164	-1	0	0	0
166	165	-1	0	0	0
166	167	-1	0	0	0
168	167	-1	0	0	0
168	169	-1	0	0	0
170	169	-1	0	0	0
171	170	-1	0	0	0
171	172	-1	0	0	0
173	172	-1	0	0	0
173	174	-1	0	0	0
175	174	-1	0	0	0
176	175	-1	0	0	0
176	177	-1	0	0	0
178	177	-1	0	0	0
178	179	-1	0	0	0
180	179	-1	0	0	0
181	180	-1	0	0	0
181	182	-1	0	0	0
183	182	-1	0	0	0
183	184	-1	0	0	0
185	184	-1	0	0	0
186	185	-1	0	0	0
186	187	-1	0	0	0
188	187	-1	0	0	0
188	189	-1	0	0	0
190	189	-1	0	0	0
191	190	-1	0	0	0
191	192	-1	0	0	0
193	192	-1	0	0	0
193	194	-1	0	0	0
195	194	-1	0	0	0
196	195	-1	0	0	0
196	197	-1	0	0	0
198	197	-1	0	0	0
198	199	-1	0	0	0
200	199	-1	0	0	0
201	200	-1	0	0	0
201	202	-1	0	0	0
203	202	-1	0	0	0
203	204	-1	0	0	0
205	204	-1	0	0	0
206	205	-1	0	0	0
206	207	-1	0	0	0
208	207	-1	0	0	0
208	209	-1	0	0	0
210	209	-1	0	0	0
211	210	-1	0	0	0
211	212	-1	0	0	0
213	212	-1	0	0	0
213	214	-1	0	0	0
215	214	-1	0	0	0
216	215	-1	0	0	0
216	217	-1	0	0	0
218	217	-1	0	0	0
218	219	-1	0	0	0
220	219	-1	0	0	0
221	220	-1	0	0	0
221	222	-1	0	0	0
223	222	-1	0	0	0
223	224	-1	0	0	0
225	224	-1	0	0	0
226	225	-1	0	0	0
226	227	-1	0	0	0
228	227	-1	0	0	0
228	229	-1	0	0	0
230	229	-1	0	0	0
231	230	-1	0	0	0
231	232	-1	0	0	0
233	232	-1	0	0	0
233	234	-1	0	0	0
235	234	-1	0	0	0
158	235	-1	0	0	0
[NumArcSegments] = 0
[NumHoles] = 0
[NumBlockLabels] = 13
70.5	0	1	-1	0	0	0	1	0
70.5	10	1	-1	0	0	0	1	0
70.5	21	1	-1	0	0	0	1	0
16	16	3	-1	0	0	2	1	0
3	3.7999999999999998	3	-1	0	0	2	1	0
11	7.5	2	-1	0	-90	2	1	0
46	7.5	2	-1	0	-90	2	1	0
81	7.5	2	-1	0	-90	2	1	0
116	7.5	2	-1	0	-90	2	1	0
28.5	7.5	2	-1	0	90	2	1	0
63.5	7.5	2	-1	0	90	2	1	0
98.5	7.5	2	-1	0	90	2	1	0
133.5	7.5	2	-1	0	90	2	1	0
