[Format]      =  4.0
[Frequency]   =  0
[Precision]   =  1e-014
[MinAngle]    =  30
[Depth]       =  30
[LengthUnits] =  millimeters
[ProblemType] =  planar
[Coordinates] =  cartesian
[ACSolver]    =  0
[PrevType]    =  2
[PrevSoln]    =  "zhu.ans"
[Comment]     =  "Add comments here."
[PointProps]   = 0
[BdryProps]   = 1
  <BeginBdry>
    <BdryName> = "A=0"
    <BdryType> = 0
    <A_0> = 0
    <A_1> = 0
    <A_2> = 0
    <Phi> = 0
    <c0> = 0
    <c0i> = 0
    <c1> = 0
    <c1i> = 0
    <Mu_ssd> = 0
    <Sigma_ssd> = 0
  <EndBdry>
[BlockProps]  = 5
  <BeginBlock>
    <BlockName> = "NdFeB"
    <Mu_x> = 1.0449600000000001
    <Mu_y> = 1.0449600000000001
    <H_c> = 891000
    <H_cAngle> = 0
    <J_re> = 0
    <J_im> = 0
    <Sigma> = 0
    <d_lam> = 0
    <Phi_h> = 0
    <Phi_hx> = 0
    <Phi_hy> = 0
    <LamType> = 0
    <LamFill> = 1
    <NStrands> = 0
    <WireD> = 0
    <BHPoints> = 0
  <EndBlock>
  <BeginBlock>
    <BlockName> = "Air"
    <Mu_x> = 1
    <Mu_y> = 1
    <H_c> = 0
    <H_cAngle> = 0
    <J_re> = 0
    <J_im> = 0
    <Sigma> = 0
    <d_lam> = 0
    <Phi_h> = 0
    <Phi_hx> = 0
    <Phi_hy> = 0
    <LamType> = 0
    <LamFill> = 1
    <NStrands> = 0
    <WireD> = 0
    <BHPoints> = 0
  <EndBlock>
  <BeginBlock>
    <BlockName> = "M-19 Steel"
    <Mu_x> = 4416
    <Mu_y> = 4416
    <H_c> = 0
    <H_cAngle> = 0
    <J_re> = 0
    <J_im> = 0
    <Sigma> = 1.8999999999999999
    <d_lam> = 0.63500000000000001
    <Phi_h> = 0
    <Phi_hx> = 0
    <Phi_hy> = 0
    <LamType> = 0
    <LamFill> = 0.97999999999999998
    <NStrands> = 0
    <WireD> = 0
    <BHPoints> = 47
      0	0
      0.050000000000000003	15.120714
      0.10000000000000001	22.718292000000002
      0.14999999999999999	27.842732999999999
      0.20000000000000001	31.871434000000001
      0.25	35.365043999999997
      0.29999999999999999	38.600588000000002
      0.34999999999999998	41.736201999999999
      0.40000000000000002	44.873978999999999
      0.45000000000000001	48.087806999999998
      0.5	51.437235999999999
      0.55000000000000004	54.975220999999998
      0.59999999999999998	58.752992999999996
      0.65000000000000002	62.823644000000002
      0.69999999999999996	67.245284999999996
      0.75	72.084406000000001
      0.80000000000000004	77.420100000000005
      0.84999999999999998	83.350020999999998
      0.90000000000000002	89.999611999999999
      0.94999999999999996	97.537352999999996
      1	106.20140600000001
      1.05	116.34846400000001
      1.1000000000000001	128.54732899999999
      1.1499999999999999	143.76543100000001
      1.2	163.75416899999999
      1.25	191.86815799999999
      1.3	234.833507
      1.3500000000000001	306.50976900000001
      1.3999999999999999	435.255202
      1.45	674.911968
      1.5	1108.3255690000001
      1.55	1813.085468
      1.6000000000000001	2801.2174209999998
      1.6499999999999999	4053.6531169999998
      1.7	5591.10689
      1.75	7448.318413
      1.8	9708.81567
      1.8500000000000001	12486.931615
      1.8999999999999999	16041.483644
      1.95	21249.420623999998
      2	31313.495878000002
      2.0499999999999998	53589.446877000002
      2.1000000000000001	88477.484601000004
      2.1499999999999999	124329.41054
      2.2000000000000002	159968.5693
      2.25	197751.604272
      2.2999999999999998	234024.75134700001
  <EndBlock>
  <BeginBlock>
    <BlockName> = "1018 Steel"
    <Mu_x> = 529
    <Mu_y> = 529
    <H_c> = 0
    <H_cAngle> = 0
    <J_re> = 0
    <J_im> = 0
    <Sigma> = 5.7999999999999998
    <d_lam> = 0
    <Phi_h> = 20
    <Phi_hx> = 0
    <Phi_hy> = 0
    <LamType> = 0
    <LamFill> = 1
    <NStrands> = 0
    <WireD> = 0
    <BHPoints> = 13
      0	0
      0.25030000000000002	238.73249999999999
      0.92500000000000004	795.77499999999998
      1.25	1591.55
      1.3899999999999999	2387.3249999999998
      1.5249999999999999	3978.875
      1.71	7957.75
      1.8700000000000001	15915.5
      1.9550000000000001	23873.25
      2.02	39788.75
      2.1099999999999999	79577.5
      2.2250000000000001	159155
      2.4300000000000002	318310
  <EndBlock>
  <BeginBlock>
    <BlockName> = "Winding"
    <Mu_x> = 1
    <Mu_y> = 1
    <H_c> = 0
    <H_cAngle> = 0
    <J_re> = 0
    <J_im> = 0
    <Sigma> = 0
    <d_lam> = 0
    <Phi_h> = 0
    <Phi_hx> = 0
    <Phi_hy> = 0
    <LamType> = 3
    <LamFill> = 1
    <NStrands> = 1
    <WireD> = 0.64380801773901497
    <BHPoints> = 0
  <EndBlock>
[CircuitProps]  = 3
  <BeginCircuit>
    <CircuitName> = "A"
    <TotalAmps_re> = 0
    <TotalAmps_im> = 0
    <CircuitType> = 1
  <EndCircuit>
  <BeginCircuit>
    <CircuitName> = "B"
    <TotalAmps_re> = 0
    <TotalAmps_im> = 0
    <CircuitType> = 1
  <EndCircuit>
  <BeginCircuit>
    <CircuitName> = "C"
    <TotalAmps_re> = 0
    <TotalAmps_im> = 0
    <CircuitType> = 1
  <EndCircuit>
[NumPoints] = 208
-28.278476710979437	-10.741985612846142	0	1
28.278476710979437	10.741985612846142	0	1
28.278476710979433	-10.741985612846149	0	1
-28.278476710979433	10.741985612846149	0	1
25.24029326269239	-9.5878879850197052	0	1
25.240293262692393	9.5878879850196981	0	1
-25.24029326269239	9.5878879850197034	0	1
-25.240293262692393	-9.5878879850196963	0	1
-4.8364059276779923	29.860872018457883	0	1
-4.3167920676795308	26.652679156970674	0	1
-23.442070783301421	19.118886405611743	0	1
-20.923501195012843	17.064791171950983	0	1
4.3167920676795326	-26.652679156970674	0	1
4.8364059276779923	-29.860872018457883	0	1
20.923501195012843	-17.064791171950983	0	1
23.442070783301421	-19.118886405611743	0	1
-23.442070783301443	-19.118886405611722	0	1
-20.923501195012861	-17.064791171950958	0	1
-4.8364059276780242	-29.860872018457883	0	1
-4.3167920676795593	-26.652679156970677	0	1
20.923501195012857	17.064791171950962	0	1
23.442070783301443	19.118886405611722	0	1
4.316792067679561	26.652679156970677	0	1
4.8364059276780242	29.860872018457883	0	1
-12.35	1.5124387969469811e-015	0	1
12.35	-1.5124387969469811e-015	0	1
53	0	0	0
-53	0	0	0
30.978662011132759	1.1499999999999999	0	0
31.979329261258748	1.1499999999999999	0	0
30.978662011132762	-1.1499999999999999	0	0
31.979329261258751	-1.1499999999999999	0	0
28.717096928857682	11.675972934988868	0	0
29.657416559663204	12.018221291298262	0	0
29.503743258506724	9.5146799071812822	0	0
30.444062889312242	9.8569282634906763	0	0
22.991826137749715	20.793651215010048	0	0
23.758381724119879	21.436867724810135	0	0
24.470237640028756	19.031748995836402	0	0
25.236793226398916	19.674965505636489	0	0
14.493401791214279	27.403308276892894	0	0
14.993735416277273	28.269911536237117	0	0
16.485260219918487	26.253308276892898	0	0
16.985593844981484	27.119911536237122	0	0
4.2468592888289294	30.707721930825272	0	0
4.4206233332642864	31.69318679693475	0	0
6.5119171207570083	30.308331122191337	0	0
6.6856811651923653	31.293795988300815	0	0
-6.5119171207570048	30.308331122191333	0	0
-6.6856811651923618	31.293795988300811	0	0
-4.2468592888289276	30.707721930825276	0	0
-4.4206233332642828	31.693186796934754	0	0
-16.485260219918477	26.253308276892898	0	0
-16.985593844981473	27.119911536237122	0	0
-14.49340179121427	27.403308276892901	0	0
-14.993735416277264	28.269911536237124	0	0
-24.470237640028749	19.031748995836406	0	0
-25.236793226398913	19.674965505636493	0	0
-22.991826137749715	20.793651215010058	0	0
-23.758381724119875	21.436867724810146	0	0
-29.503743258506717	9.5146799071812858	0	0
-30.444062889312239	9.8569282634906799	0	0
-28.717096928857682	11.675972934988875	0	0
-29.657416559663201	12.01822129129827	0	0
-30.978662011132759	-1.1499999999999961	0	0
-31.979329261258748	-1.1499999999999959	0	0
-30.978662011132762	1.1500000000000037	0	0
-31.979329261258751	1.1500000000000039	0	0
-28.717096928857682	-11.675972934988867	0	0
-29.657416559663204	-12.018221291298261	0	0
-29.503743258506724	-9.5146799071812804	0	0
-30.444062889312242	-9.8569282634906745	0	0
-22.991826137749715	-20.793651215010048	0	0
-23.758381724119879	-21.436867724810135	0	0
-24.470237640028756	-19.031748995836402	0	0
-25.236793226398916	-19.674965505636489	0	0
-14.493401791214289	-27.40330827689289	0	0
-14.993735416277284	-28.26991153623711	0	0
-16.485260219918498	-26.253308276892891	0	0
-16.985593844981494	-27.119911536237115	0	0
-4.2468592888289276	-30.707721930825272	0	0
-4.4206233332642846	-31.69318679693475	0	0
-6.5119171207570066	-30.308331122191337	0	0
-6.6856811651923618	-31.293795988300815	0	0
6.511917120756995	-30.308331122191333	0	0
6.6856811651923511	-31.293795988300815	0	0
4.2468592888289169	-30.707721930825276	0	0
4.4206233332642721	-31.693186796934757	0	0
16.485260219918487	-26.253308276892895	0	0
16.98559384498148	-27.119911536237119	0	0
14.49340179121428	-27.403308276892897	0	0
14.993735416277275	-28.269911536237121	0	0
24.470237640028749	-19.031748995836409	0	0
25.236793226398909	-19.674965505636496	0	0
22.991826137749712	-20.793651215010062	0	0
23.758381724119872	-21.436867724810149	0	0
29.50374325850672	-9.5146799071812769	0	0
30.444062889312242	-9.856928263490671	0	0
28.717096928857686	-11.675972934988867	0	0
29.657416559663204	-12.018221291298261	0	0
-2.5	33	0	0
-8.937433177782296	31.864906844249152	0	0
-12.706697555342178	42.220875609549608	0	0
-11.316682361850351	44.844121134447327	0	0
-2.5	44.020591772487556	0	0
-4.7033898305084758	46.010223039040675	0	0
-25.971795644926146	38.269156392298427	0	0
-26.380779854626773	35.328698734339454	0	0
-20.156163794666973	41.626813006553313	0	0
-17.405160659271719	40.510774892921255	0	0
-37.494327070343026	27.078366596642088	0	0
-36.872950764598478	24.175359395704877	0	0
-33.177806931892825	32.222594979145363	0	0
-30.211002070221657	32.114760685906745	0	0
-44.4944892937432	12.621526155301982	0	0
-42.917699625563841	10.10611492364286	0	0
-42.197716900851518	18.931856442398615	0	0
-39.372950764598471	19.845232376782686	0	0
-46.127959439593148	-3.3576566142548723	0	0
-43.785940513898503	-5.1820761585818076	0	0
-46.127959439593141	3.3576566142549087	0	0
-43.785940513898488	5.1820761585818147	0	0
-42.197716900851539	-18.931856442398583	0	0
-39.372950764598485	-19.845232376782683	0	0
-44.4944892937432	-12.621526155301947	0	0
-42.917699625563834	-10.106114923642849	0	0
-33.17780693189286	-32.222594979145342	0	0
-30.211002070221674	-32.114760685906745	0	0
-37.494327070343047	-27.078366596642052	0	0
-36.872950764598478	-24.175359395704863	0	0
-20.156163794667012	-41.626813006553299	0	0
-17.405160659271729	-40.510774892921262	0	0
-25.971795644926175	-38.269156392298399	0	0
-26.38077985462678	-35.32869873433944	0	0
-4.7033898305085131	-46.010223039040675	0	0
-2.5000000000000089	-44.020591772487563	0	0
-11.316682361850384	-44.844121134447313	0	0
-12.706697555342183	-42.220875609549601	0	0
11.316682361850345	-44.844121134447327	0	0
12.706697555342172	-42.220875609549608	0	0
4.7033898305084705	-46.010223039040675	0	0
2.4999999999999947	-44.020591772487556	0	0
25.971795644926143	-38.269156392298427	0	0
26.380779854626773	-35.328698734339454	0	0
20.156163794666973	-41.626813006553313	0	0
17.405160659271715	-40.510774892921255	0	0
37.494327070343026	-27.078366596642088	0	0
36.872950764598478	-24.175359395704877	0	0
33.177806931892825	-32.222594979145363	0	0
30.211002070221657	-32.114760685906745	0	0
44.4944892937432	-12.621526155302004	0	0
42.917699625563841	-10.106114923642876	0	0
42.197716900851511	-18.931856442398633	0	0
39.372950764598464	-19.845232376782704	0	0
46.127959439593148	3.3576566142548758	0	0
43.785940513898495	5.1820761585818111	0	0
46.127959439593141	-3.3576566142549042	0	0
43.785940513898488	-5.1820761585818111	0	0
42.197716900851539	18.931856442398573	0	0
39.372950764598485	19.845232376782668	0	0
44.494489293743207	12.621526155301932	0	0
42.917699625563841	10.106114923642835	0	0
33.177806931892846	32.222594979145356	0	0
30.211002070221664	32.114760685906759	0	0
37.494327070343047	27.078366596642066	0	0
36.872950764598471	24.175359395704877	0	0
20.156163794667016	41.626813006553299	0	0
17.40516065927174	40.510774892921255	0	0
25.971795644926178	38.269156392298399	0	0
26.380779854626784	35.328698734339433	0	0
4.7033898305084989	46.010223039040675	0	0
2.4999999999999964	44.020591772487563	0	0
11.316682361850372	44.844121134447313	0	0
12.706697555342171	42.220875609549601	0	0
-13.63589628171184	30.154806127620805	0	0
-19.296880011858352	26.88643564714263	0	0
-23.127102227453239	23.672497598709928	0	0
-27.328838324886473	18.665063509461103	0	0
-29.828838324886473	14.334936490538908	0	0
-32.064535405235546	8.1924092455392277	0	0
-32.932776293570193	3.2683704804781835	0	0
-32.932776293570193	-3.2683704804781764	0	0
-32.064535405235539	-8.1924092455392206	0	0
-29.828838324886476	-14.334936490538901	0	0
-27.328838324886476	-18.665063509461088	0	0
-23.12710222745325	-23.672497598709921	0	0
-19.296880011858359	-26.886435647142619	0	0
-13.635896281711847	-30.154806127620805	0	0
-8.9374331777823031	-31.864906844249148	0	0
-2.5000000000000071	-33	0	0
2.499999999999996	-33	0	0
8.9374331777822924	-31.864906844249152	0	0
13.635896281711837	-30.154806127620805	0	0
19.296880011858349	-26.88643564714263	0	0
23.127102227453239	-23.672497598709928	0	0
27.328838324886473	-18.665063509461103	0	0
29.828838324886465	-14.334936490538919	0	0
32.064535405235539	-8.1924092455392419	0	0
32.932776293570193	-3.2683704804781808	0	0
32.932776293570193	3.268370480478179	0	0
32.064535405235539	8.1924092455392099	0	0
29.828838324886483	14.33493649053889	0	0
27.328838324886473	18.665063509461099	0	0
23.127102227453246	23.672497598709931	0	0
19.296880011858363	26.886435647142616	0	0
13.635896281711851	30.154806127620802	0	0
8.9374331777822924	31.864906844249148	0	0
2.4999999999999964	33	0	0
[NumSegments] = 138
2	4	-1	0	0	1
1	5	-1	0	0	1
6	3	-1	0	0	1
7	0	-1	0	0	1
8	9	-1	0	0	1
10	11	-1	0	0	1
12	13	-1	0	0	1
14	15	-1	0	0	1
16	17	-1	0	0	1
18	19	-1	0	0	1
20	21	-1	0	0	1
22	23	-1	0	0	1
28	29	-1	0	0	0
30	31	-1	0	0	0
32	33	-1	0	0	0
34	35	-1	0	0	0
36	37	-1	0	0	0
38	39	-1	0	0	0
40	41	-1	0	0	0
42	43	-1	0	0	0
44	45	-1	0	0	0
46	47	-1	0	0	0
48	49	-1	0	0	0
50	51	-1	0	0	0
52	53	-1	0	0	0
54	55	-1	0	0	0
56	57	-1	0	0	0
58	59	-1	0	0	0
60	61	-1	0	0	0
62	63	-1	0	0	0
64	65	-1	0	0	0
66	67	-1	0	0	0
68	69	-1	0	0	0
70	71	-1	0	0	0
72	73	-1	0	0	0
74	75	-1	0	0	0
76	77	-1	0	0	0
78	79	-1	0	0	0
80	81	-1	0	0	0
82	83	-1	0	0	0
84	85	-1	0	0	0
86	87	-1	0	0	0
88	89	-1	0	0	0
90	91	-1	0	0	0
92	93	-1	0	0	0
94	95	-1	0	0	0
96	97	-1	0	0	0
98	99	-1	0	0	0
51	100	-1	0	0	0
101	49	-1	0	0	0
102	101	-1	0	0	0
104	100	-1	0	0	0
55	174	-1	0	0	0
175	53	-1	0	0	0
107	175	-1	0	0	0
109	174	-1	0	0	0
59	176	-1	0	0	0
177	57	-1	0	0	0
111	177	-1	0	0	0
113	176	-1	0	0	0
63	178	-1	0	0	0
179	61	-1	0	0	0
115	179	-1	0	0	0
117	178	-1	0	0	0
67	180	-1	0	0	0
181	65	-1	0	0	0
119	181	-1	0	0	0
121	180	-1	0	0	0
71	182	-1	0	0	0
183	69	-1	0	0	0
123	183	-1	0	0	0
125	182	-1	0	0	0
75	184	-1	0	0	0
185	73	-1	0	0	0
127	185	-1	0	0	0
129	184	-1	0	0	0
79	186	-1	0	0	0
187	77	-1	0	0	0
131	187	-1	0	0	0
133	186	-1	0	0	0
83	188	-1	0	0	0
189	81	-1	0	0	0
135	189	-1	0	0	0
137	188	-1	0	0	0
87	190	-1	0	0	0
191	85	-1	0	0	0
139	191	-1	0	0	0
141	190	-1	0	0	0
91	192	-1	0	0	0
193	89	-1	0	0	0
143	193	-1	0	0	0
145	192	-1	0	0	0
95	194	-1	0	0	0
195	93	-1	0	0	0
147	195	-1	0	0	0
149	194	-1	0	0	0
99	196	-1	0	0	0
197	97	-1	0	0	0
151	197	-1	0	0	0
153	196	-1	0	0	0
31	198	-1	0	0	0
199	29	-1	0	0	0
155	199	-1	0	0	0
157	198	-1	0	0	0
35	200	-1	0	0	0
201	33	-1	0	0	0
159	201	-1	0	0	0
161	200	-1	0	0	0
39	202	-1	0	0	0
203	37	-1	0	0	0
163	203	-1	0	0	0
165	202	-1	0	0	0
43	204	-1	0	0	0
205	41	-1	0	0	0
167	205	-1	0	0	0
169	204	-1	0	0	0
47	206	-1	0	0	0
207	45	-1	0	0	0
171	207	-1	0	0	0
173	206	-1	0	0	0
101	100	-1	0	0	0
175	174	-1	0	0	0
177	176	-1	0	0	0
179	178	-1	0	0	0
181	180	-1	0	0	0
183	182	-1	0	0	0
185	184	-1	0	0	0
187	186	-1	0	0	0
189	188	-1	0	0	0
191	190	-1	0	0	0
193	192	-1	0	0	0
195	194	-1	0	0	0
197	196	-1	0	0	0
199	198	-1	0	0	0
201	200	-1	0	0	0
203	202	-1	0	0	0
205	204	-1	0	0	0
207	206	-1	0	0	0
[NumArcSegments] = 94
84	90	15.74804719434489	1	0	0	0
88	94	15.74804719434484	1	0	0	0
92	98	15.74804719434489	1	0	0	0
96	30	15.748047194344858	1	0	0	0
0	16	18.399999999999974	1	0	0	1
16	18	41.599999999999994	1	0	0	1
18	13	18.400000000000013	1	0	0	1
13	15	41.59999999999998	1	0	0	1
15	2	18.400000000000006	1	0	0	1
2	1	41.600000000000001	1	0	0	1
1	21	18.399999999999974	1	0	0	1
21	23	41.599999999999994	1	0	0	1
23	8	18.400000000000013	1	0	0	1
8	10	41.59999999999998	1	0	0	1
10	3	18.400000000000006	1	0	0	1
3	0	41.600000000000001	1	0	0	1
4	5	41.600000000000009	1	0	0	1
6	7	41.600000000000001	1	0	0	1
9	11	41.600000000000009	1	0	0	1
12	14	41.600000000000001	1	0	0	1
17	19	41.600000000000009	1	0	0	1
20	22	41.600000000000001	1	0	0	1
24	25	180	1	0	0	1
25	24	180	1	0	0	1
26	27	180	1	1	0	0
27	26	180	1	1	0	0
48	54	15.748047194344856	1	0	0	0
52	58	15.748047194344874	1	0	0	0
56	62	15.748047194344865	1	0	0	0
60	66	15.748047194344867	1	0	0	0
64	70	15.748047194344872	1	0	0	0
68	74	15.748047194344867	1	0	0	0
72	78	15.748047194344849	1	0	0	0
76	82	15.74804719434489	1	0	0	0
28	34	15.748047194344865	1	0	0	0
32	38	15.74804719434486	1	0	0	0
36	42	15.748047194344867	1	0	0	0
40	46	15.748047194344876	1	0	0	0
44	50	15.748047194344874	1	0	0	0
80	86	15.74804719434483	1	0	0	0
103	102	95.836779601163244	10	0	0	0
105	103	8.3264407976734987	1	0	0	0
104	105	95.836779601163244	10	0	0	0
106	107	95.836779601163244	10	0	0	0
108	106	8.3264407976734987	1	0	0	0
109	108	95.836779601163244	10	0	0	0
110	111	95.836779601163244	10	0	0	0
112	110	8.3264407976734987	1	0	0	0
113	112	95.836779601163244	10	0	0	0
114	115	95.836779601163244	10	0	0	0
116	114	8.3264407976734987	1	0	0	0
117	116	95.836779601163244	10	0	0	0
118	119	95.836779601163244	10	0	0	0
120	118	8.3264407976734987	1	0	0	0
121	120	95.836779601163244	10	0	0	0
122	123	95.836779601163244	10	0	0	0
124	122	8.3264407976734987	1	0	0	0
125	124	95.836779601163244	10	0	0	0
126	127	95.836779601163244	10	0	0	0
128	126	8.3264407976734987	1	0	0	0
129	128	95.836779601163244	10	0	0	0
130	131	95.836779601163244	10	0	0	0
132	130	8.3264407976734987	1	0	0	0
133	132	95.836779601163244	10	0	0	0
134	135	95.836779601163244	10	0	0	0
136	134	8.3264407976734987	1	0	0	0
137	136	95.836779601163244	10	0	0	0
138	139	95.836779601163244	10	0	0	0
140	138	8.3264407976734987	1	0	0	0
141	140	95.836779601163244	10	0	0	0
142	143	95.836779601163244	10	0	0	0
144	142	8.3264407976734987	1	0	0	0
145	144	95.836779601163244	10	0	0	0
146	147	95.836779601163244	10	0	0	0
148	146	8.3264407976734987	1	0	0	0
149	148	95.836779601163244	10	0	0	0
150	151	95.836779601163244	10	0	0	0
152	150	8.3264407976734987	1	0	0	0
153	152	95.836779601163244	10	0	0	0
154	155	95.836779601163244	10	0	0	0
156	154	8.3264407976734987	1	0	0	0
157	156	95.836779601163244	10	0	0	0
158	159	95.836779601163244	10	0	0	0
160	158	8.3264407976734987	1	0	0	0
161	160	95.836779601163244	10	0	0	0
162	163	95.836779601163244	10	0	0	0
164	162	8.3264407976734987	1	0	0	0
165	164	95.836779601163244	10	0	0	0
166	167	95.836779601163244	10	0	0	0
168	166	8.3264407976734987	1	0	0	0
169	168	95.836779601163244	10	0	0	0
170	171	95.836779601163244	10	0	0	0
172	170	8.3264407976734987	1	0	0	0
173	172	95.836779601163244	10	0	0	0
[NumHoles] = 0
[NumBlockLabels] = 28
-28	3.4290110376125889e-015	1	-1	0	180	1	1	0
-14.000000000000007	-24.248711305964282	1	-1	0	420	1	1	0
13.999999999999989	-24.248711305964285	1	-1	0	300	1	1	0
28	-1.2310795234613841e-014	1	-1	0	540	1	1	0
14.000000000000016	24.248711305964274	1	-1	0	420	1	1	0
-13.999999999999982	24.248711305964292	1	-1	0	660	1	1	0
5.4000000000000004	31.199999999999999	2	-1	0	0	0	1	0
-9.0000000000000018	-16.5	4	-1	0	0	1	1	0
-2.2999999999999998	-0.29999999999999971	2	-1	0	0	1	1	0
49.700000000000003	1.8999999999999999	3	-1	0	0	0	1	0
40	0	5	-1	1	0	0	152	0
37.587704831436341	13.680805733026748	5	-1	2	0	0	-152	0
30.64177772475912	25.71150438746157	5	-1	3	0	0	152	0
20.000000000000004	34.641016151377542	5	-1	1	0	0	-152	0
6.9459271066772166	39.392310120488318	5	-1	2	0	0	152	0
-6.9459271066772121	39.392310120488318	5	-1	3	0	0	-152	0
-19.999999999999993	34.641016151377549	5	-1	1	0	0	152	0
-30.641777724759116	25.711504387461581	5	-1	2	0	0	-152	0
-37.587704831436326	13.680805733026755	5	-1	3	0	0	152	0
-40	1.4210854715202004e-014	5	-1	1	0	0	-152	0
-37.587704831436334	-13.680805733026737	5	-1	2	0	0	152	0
-30.64177772475912	-25.711504387461563	5	-1	3	0	0	-152	0
-20.000000000000018	-34.641016151377535	5	-1	1	0	0	152	0
-6.9459271066772388	-39.392310120488318	5	-1	2	0	0	-152	0
6.9459271066771908	-39.392310120488318	5	-1	3	0	0	152	0
19.999999999999975	-34.641016151377556	5	-1	1	0	0	-152	0
30.641777724759098	-25.711504387461588	5	-1	2	0	0	152	0
37.587704831436319	-13.680805733026769	5	-1	3	0	0	-152	0
